<?xml version="1.0" encoding="UTF-8"?>

<!-- generated on 2024-10-22 20:12:53 by Eclipse SUMO netedit Version 1.20.0
<configuration xmlns:xsi="http://www.w3.org/2001/XMLSchema-instance" xsi:noNamespaceSchemaLocation="http://sumo.dlr.de/xsd/neteditConfiguration.xsd">

    <input>
        <sumocfg-file value="/Users/luchenyang/Documents/SRT/11.sumocfg"/>
        <sumo-net-file value="/Users/luchenyang/Documents/SRT/11.net.xml"/>
    </input>

    <output>
        <output-file value="/Users/luchenyang/Documents/SRT/11.net.xml"/>
    </output>

    <processing>
        <geometry.min-radius.fix.railways value="false"/>
        <geometry.max-grade.fix value="false"/>
        <offset.disable-normalization value="true"/>
        <lefthand value="0"/>
    </processing>

    <junctions>
        <no-turnarounds value="true"/>
        <junctions.corner-detail value="5"/>
        <junctions.limit-turn-speed value="5.50"/>
        <rectangular-lane-cut value="0"/>
    </junctions>

    <pedestrian>
        <walkingareas value="0"/>
    </pedestrian>

</configuration>
-->

<net version="1.20" junctionCornerDetail="5" limitTurnSpeed="5.50" xmlns:xsi="http://www.w3.org/2001/XMLSchema-instance" xsi:noNamespaceSchemaLocation="http://sumo.dlr.de/xsd/net_file.xsd">

    <location netOffset="0.00,0.00" convBoundary="-50.00,-50.00,50.00,50.00" origBoundary="-10000000000.00,-10000000000.00,10000000000.00,10000000000.00" projParameter="!"/>

    <edge id=":J12_0" function="internal">
        <lane id=":J12_0_0" index="0" speed="6.51" length="9.03" shape="-1.60,7.20 -1.95,4.75 -3.00,3.00 -4.75,1.95 -7.20,1.60"/>
    </edge>
    <edge id=":J12_1" function="internal">
        <lane id=":J12_1_0" index="0" speed="13.89" length="14.40" shape="-1.60,7.20 -1.60,-7.20"/>
    </edge>
    <edge id=":J12_2" function="internal">
        <lane id=":J12_2_0" index="0" speed="8.00" length="4.07" shape="-1.60,7.20 -1.05,3.35 -0.96,3.20"/>
    </edge>
    <edge id=":J12_12" function="internal">
        <lane id=":J12_12_0" index="0" speed="8.00" length="10.13" shape="-0.96,3.20 0.60,0.60 3.35,-1.05 7.20,-1.60"/>
    </edge>
    <edge id=":J12_3" function="internal">
        <lane id=":J12_3_0" index="0" speed="6.51" length="9.03" shape="7.20,1.60 4.75,1.95 3.00,3.00 1.95,4.75 1.60,7.20"/>
    </edge>
    <edge id=":J12_4" function="internal">
        <lane id=":J12_4_0" index="0" speed="13.89" length="14.40" shape="7.20,1.60 -7.20,1.60"/>
    </edge>
    <edge id=":J12_5" function="internal">
        <lane id=":J12_5_0" index="0" speed="8.00" length="14.19" shape="7.20,1.60 3.35,1.05 0.60,-0.60 -1.05,-3.35 -1.60,-7.20"/>
    </edge>
    <edge id=":J12_6" function="internal">
        <lane id=":J12_6_0" index="0" speed="6.51" length="9.03" shape="1.60,-7.20 1.95,-4.75 3.00,-3.00 4.75,-1.95 7.20,-1.60"/>
    </edge>
    <edge id=":J12_7" function="internal">
        <lane id=":J12_7_0" index="0" speed="13.89" length="14.40" shape="1.60,-7.20 1.60,7.20"/>
    </edge>
    <edge id=":J12_8" function="internal">
        <lane id=":J12_8_0" index="0" speed="8.00" length="4.07" shape="1.60,-7.20 1.05,-3.35 0.96,-3.20"/>
    </edge>
    <edge id=":J12_13" function="internal">
        <lane id=":J12_13_0" index="0" speed="8.00" length="10.13" shape="0.96,-3.20 -0.60,-0.60 -3.35,1.05 -7.20,1.60"/>
    </edge>
    <edge id=":J12_9" function="internal">
        <lane id=":J12_9_0" index="0" speed="6.51" length="9.03" shape="-7.20,-1.60 -4.75,-1.95 -3.00,-3.00 -1.95,-4.75 -1.60,-7.20"/>
    </edge>
    <edge id=":J12_10" function="internal">
        <lane id=":J12_10_0" index="0" speed="13.89" length="14.40" shape="-7.20,-1.60 7.20,-1.60"/>
    </edge>
    <edge id=":J12_11" function="internal">
        <lane id=":J12_11_0" index="0" speed="8.00" length="14.19" shape="-7.20,-1.60 -3.35,-1.05 -0.60,0.60 1.05,3.35 1.60,7.20"/>
    </edge>

    <edge id="-E4" from="J12" to="J11" priority="-1">
        <lane id="-E4_0" index="0" speed="13.89" length="42.80" shape="1.60,7.20 1.60,50.00"/>
    </edge>
    <edge id="-E5" from="J13" to="J12" priority="-1">
        <lane id="-E5_0" index="0" speed="13.89" length="42.80" shape="-50.00,-1.60 -7.20,-1.60"/>
    </edge>
    <edge id="-E6" from="J14" to="J12" priority="-1">
        <lane id="-E6_0" index="0" speed="13.89" length="42.80" shape="50.00,1.60 7.20,1.60"/>
    </edge>
    <edge id="-E7" from="J15" to="J12" priority="-1">
        <lane id="-E7_0" index="0" speed="13.89" length="42.80" shape="1.60,-50.00 1.60,-7.20"/>
    </edge>
    <edge id="E4" from="J11" to="J12" priority="-1">
        <lane id="E4_0" index="0" speed="13.89" length="42.80" shape="-1.60,50.00 -1.60,7.20"/>
    </edge>
    <edge id="E5" from="J12" to="J13" priority="-1">
        <lane id="E5_0" index="0" speed="13.89" length="42.80" shape="-7.20,1.60 -50.00,1.60"/>
    </edge>
    <edge id="E6" from="J12" to="J14" priority="-1">
        <lane id="E6_0" index="0" speed="13.89" length="42.80" shape="7.20,-1.60 50.00,-1.60"/>
    </edge>
    <edge id="E7" from="J12" to="J15" priority="-1">
        <lane id="E7_0" index="0" speed="13.89" length="42.80" shape="-1.60,-7.20 -1.60,-50.00"/>
    </edge>

    <junction id="J11" type="dead_end" x="0.00" y="50.00" incLanes="-E4_0" intLanes="" shape="0.00,50.00 3.20,50.00 0.00,50.00"/>
    <junction id="J12" type="priority" x="0.00" y="0.00" incLanes="E4_0 -E6_0 -E7_0 -E5_0" intLanes=":J12_0_0 :J12_1_0 :J12_12_0 :J12_3_0 :J12_4_0 :J12_5_0 :J12_6_0 :J12_7_0 :J12_13_0 :J12_9_0 :J12_10_0 :J12_11_0" shape="-3.20,7.20 3.20,7.20 3.64,4.98 4.20,4.20 4.98,3.64 5.98,3.31 7.20,3.20 7.20,-3.20 4.98,-3.64 4.20,-4.20 3.64,-4.98 3.31,-5.98 3.20,-7.20 -3.20,-7.20 -3.64,-4.98 -4.20,-4.20 -4.98,-3.64 -5.98,-3.31 -7.20,-3.20 -7.20,3.20 -4.98,3.64 -4.20,4.20 -3.64,4.98 -3.31,5.98">
        <request index="0"  response="000000000000" foes="000100010000" cont="0"/>
        <request index="1"  response="000000000000" foes="111100110000" cont="0"/>
        <request index="2"  response="000011000000" foes="110111110000" cont="1"/>
        <request index="3"  response="000010000000" foes="100010000000" cont="0"/>
        <request index="4"  response="000110000111" foes="100110000111" cont="0"/>
        <request index="5"  response="011110000110" foes="111110000110" cont="0"/>
        <request index="6"  response="000000000000" foes="010000000100" cont="0"/>
        <request index="7"  response="000000000000" foes="110000111100" cont="0"/>
        <request index="8"  response="000000000111" foes="110000110111" cont="1"/>
        <request index="9"  response="000000000010" foes="000000100010" cont="0"/>
        <request index="10" response="000111000110" foes="000111100110" cont="0"/>
        <request index="11" response="000110111110" foes="000110111110" cont="0"/>
    </junction>
    <junction id="J13" type="dead_end" x="-50.00" y="0.00" incLanes="E5_0" intLanes="" shape="-50.00,0.00 -50.00,3.20 -50.00,0.00"/>
    <junction id="J14" type="dead_end" x="50.00" y="0.00" incLanes="E6_0" intLanes="" shape="50.00,0.00 50.00,-3.20 50.00,0.00"/>
    <junction id="J15" type="dead_end" x="0.00" y="-50.00" incLanes="E7_0" intLanes="" shape="0.00,-50.00 -3.20,-50.00 0.00,-50.00"/>

    <junction id=":J12_12_0" type="internal" x="-0.96" y="3.20" incLanes=":J12_2_0 -E7_0" intLanes=":J12_4_0 :J12_5_0 :J12_6_0 :J12_7_0 :J12_10_0 :J12_11_0"/>
    <junction id=":J12_13_0" type="internal" x="0.96" y="-3.20" incLanes=":J12_8_0 E4_0" intLanes=":J12_0_0 :J12_1_0 :J12_4_0 :J12_5_0 :J12_10_0 :J12_11_0"/>

    <connection from="-E5" to="E7" fromLane="0" toLane="0" via=":J12_9_0" dir="r" state="m"/>
    <connection from="-E5" to="E6" fromLane="0" toLane="0" via=":J12_10_0" dir="s" state="m"/>
    <connection from="-E5" to="-E4" fromLane="0" toLane="0" via=":J12_11_0" dir="l" state="m"/>
    <connection from="-E6" to="-E4" fromLane="0" toLane="0" via=":J12_3_0" dir="r" state="m"/>
    <connection from="-E6" to="E5" fromLane="0" toLane="0" via=":J12_4_0" dir="s" state="m"/>
    <connection from="-E6" to="E7" fromLane="0" toLane="0" via=":J12_5_0" dir="l" state="m"/>
    <connection from="-E7" to="E6" fromLane="0" toLane="0" via=":J12_6_0" dir="r" state="M"/>
    <connection from="-E7" to="-E4" fromLane="0" toLane="0" via=":J12_7_0" dir="s" state="M"/>
    <connection from="-E7" to="E5" fromLane="0" toLane="0" via=":J12_8_0" dir="l" state="m"/>
    <connection from="E4" to="E5" fromLane="0" toLane="0" via=":J12_0_0" dir="r" state="M"/>
    <connection from="E4" to="E7" fromLane="0" toLane="0" via=":J12_1_0" dir="s" state="M"/>
    <connection from="E4" to="E6" fromLane="0" toLane="0" via=":J12_2_0" dir="l" state="m"/>

    <connection from=":J12_0" to="E5" fromLane="0" toLane="0" dir="r" state="M"/>
    <connection from=":J12_1" to="E7" fromLane="0" toLane="0" dir="s" state="M"/>
    <connection from=":J12_2" to="E6" fromLane="0" toLane="0" via=":J12_12_0" dir="l" state="m"/>
    <connection from=":J12_12" to="E6" fromLane="0" toLane="0" dir="l" state="M"/>
    <connection from=":J12_3" to="-E4" fromLane="0" toLane="0" dir="r" state="M"/>
    <connection from=":J12_4" to="E5" fromLane="0" toLane="0" dir="s" state="M"/>
    <connection from=":J12_5" to="E7" fromLane="0" toLane="0" dir="l" state="M"/>
    <connection from=":J12_6" to="E6" fromLane="0" toLane="0" dir="r" state="M"/>
    <connection from=":J12_7" to="-E4" fromLane="0" toLane="0" dir="s" state="M"/>
    <connection from=":J12_8" to="E5" fromLane="0" toLane="0" via=":J12_13_0" dir="l" state="m"/>
    <connection from=":J12_13" to="E5" fromLane="0" toLane="0" dir="l" state="M"/>
    <connection from=":J12_9" to="E7" fromLane="0" toLane="0" dir="r" state="M"/>
    <connection from=":J12_10" to="E6" fromLane="0" toLane="0" dir="s" state="M"/>
    <connection from=":J12_11" to="-E4" fromLane="0" toLane="0" dir="l" state="M"/>

</net>
