<?xml version="1.0" encoding="UTF-8"?>

<!-- generated on 2024-09-01 16:19:22 by Eclipse SUMO netedit Version 1.20.0
-->

<routes xmlns:xsi="http://www.w3.org/2001/XMLSchema-instance" xsi:noNamespaceSchemaLocation="http://sumo.dlr.de/xsd/routes_file.xsd">
    <!-- Vehicles, persons and containers (sorted by depart) -->
    <trip id="t_0" depart="0.00" from="E0" to="E1"/>
    <trip id="t_1" depart="0.00" from="-E2" to="E3"/>
</routes>
