<?xml version="1.0" encoding="UTF-8"?>

<!-- generated on 2024-12-17 19:46:37 by Eclipse SUMO netedit Version 1.20.0
<configuration xmlns:xsi="http://www.w3.org/2001/XMLSchema-instance" xsi:noNamespaceSchemaLocation="http://sumo.dlr.de/xsd/neteditConfiguration.xsd">

    <input>
        <sumo-net-file value="D:\Codespace\network1.net.xml"/>
    </input>

    <output>
        <output-file value="D:\Codespace\network1.net.xml"/>
    </output>

    <processing>
        <offset.disable-normalization value="true"/>
    </processing>

    <junctions>
        <no-turnarounds value="true"/>
    </junctions>

    <netedit>
        <new-network value="false"/>
    </netedit>

</configuration>
-->

<net version="1.20" junctionCornerDetail="5" limitTurnSpeed="5.50" xmlns:xsi="http://www.w3.org/2001/XMLSchema-instance" xsi:noNamespaceSchemaLocation="http://sumo.dlr.de/xsd/net_file.xsd">

    <location netOffset="0.00,0.00" convBoundary="-1000.00,-1000.00,1000.00,1000.00" origBoundary="10000000000.00,10000000000.00,-10000000000.00,-10000000000.00" projParameter="!"/>

    <edge id=":J0_0" function="internal">
        <lane id=":J0_0_0" index="0" speed="6.51" length="9.03" shape="-1.60,7.20 -1.95,4.75 -3.00,3.00 -4.75,1.95 -7.20,1.60"/>
    </edge>
    <edge id=":J0_1" function="internal">
        <lane id=":J0_1_0" index="0" speed="13.89" length="14.40" shape="-1.60,7.20 -1.60,-7.20"/>
    </edge>
    <edge id=":J0_2" function="internal">
        <lane id=":J0_2_0" index="0" speed="8.00" length="14.19" shape="-1.60,7.20 -1.05,3.35 0.60,0.60 3.35,-1.05 7.20,-1.60"/>
    </edge>
    <edge id=":J0_3" function="internal">
        <lane id=":J0_3_0" index="0" speed="6.51" length="9.03" shape="7.20,1.60 4.75,1.95 3.00,3.00 1.95,4.75 1.60,7.20"/>
    </edge>
    <edge id=":J0_4" function="internal">
        <lane id=":J0_4_0" index="0" speed="13.89" length="14.40" shape="7.20,1.60 -7.20,1.60"/>
    </edge>
    <edge id=":J0_5" function="internal">
        <lane id=":J0_5_0" index="0" speed="8.00" length="14.19" shape="7.20,1.60 3.35,1.05 0.60,-0.60 -1.05,-3.35 -1.60,-7.20"/>
    </edge>
    <edge id=":J0_6" function="internal">
        <lane id=":J0_6_0" index="0" speed="6.51" length="9.03" shape="1.60,-7.20 1.95,-4.75 3.00,-3.00 4.75,-1.95 7.20,-1.60"/>
    </edge>
    <edge id=":J0_7" function="internal">
        <lane id=":J0_7_0" index="0" speed="13.89" length="14.40" shape="1.60,-7.20 1.60,7.20"/>
    </edge>
    <edge id=":J0_8" function="internal">
        <lane id=":J0_8_0" index="0" speed="8.00" length="14.19" shape="1.60,-7.20 1.05,-3.35 -0.60,-0.60 -3.35,1.05 -7.20,1.60"/>
    </edge>
    <edge id=":J0_9" function="internal">
        <lane id=":J0_9_0" index="0" speed="6.51" length="9.03" shape="-7.20,-1.60 -4.75,-1.95 -3.00,-3.00 -1.95,-4.75 -1.60,-7.20"/>
    </edge>
    <edge id=":J0_10" function="internal">
        <lane id=":J0_10_0" index="0" speed="13.89" length="14.40" shape="-7.20,-1.60 7.20,-1.60"/>
    </edge>
    <edge id=":J0_11" function="internal">
        <lane id=":J0_11_0" index="0" speed="8.00" length="14.19" shape="-7.20,-1.60 -3.35,-1.05 -0.60,0.60 1.05,3.35 1.60,7.20"/>
    </edge>

    <edge id="road_hrz_1" from="J1" to="J0" priority="-1">
        <lane id="road_hrz_1_0" index="0" speed="13.89" length="992.80" shape="-1000.00,-1.60 -7.20,-1.60"/>
    </edge>
    <edge id="road_hrz_2" from="J0" to="J3" priority="-1">
        <lane id="road_hrz_2_0" index="0" speed="13.89" length="992.80" shape="7.20,-1.60 1000.00,-1.60"/>
    </edge>
    <edge id="road_hrz_3" from="J3" to="J0" priority="-1">
        <lane id="road_hrz_3_0" index="0" speed="13.89" length="992.80" shape="1000.00,1.60 7.20,1.60"/>
    </edge>
    <edge id="road_hrz_4" from="J0" to="J1" priority="-1">
        <lane id="road_hrz_4_0" index="0" speed="13.89" length="992.80" shape="-7.20,1.60 -1000.00,1.60"/>
    </edge>
    <edge id="road_ver_1" from="J2" to="J0" priority="-1">
        <lane id="road_ver_1_0" index="0" speed="13.89" length="992.80" shape="-1.60,1000.00 -1.60,7.20"/>
    </edge>
    <edge id="road_ver_2" from="J0" to="J4" priority="-1">
        <lane id="road_ver_2_0" index="0" speed="13.89" length="992.80" shape="-1.60,-7.20 -1.60,-1000.00"/>
    </edge>
    <edge id="road_ver_3" from="J4" to="J0" priority="-1">
        <lane id="road_ver_3_0" index="0" speed="13.89" length="992.80" shape="1.60,-1000.00 1.60,-7.20"/>
    </edge>
    <edge id="road_ver_4" from="J0" to="J2" priority="-1">
        <lane id="road_ver_4_0" index="0" speed="13.89" length="992.80" shape="1.60,7.20 1.60,1000.00"/>
    </edge>

    <junction id="J0" type="right_before_left" x="0.00" y="0.00" incLanes="road_ver_1_0 road_hrz_3_0 road_ver_3_0 road_hrz_1_0" intLanes=":J0_0_0 :J0_1_0 :J0_2_0 :J0_3_0 :J0_4_0 :J0_5_0 :J0_6_0 :J0_7_0 :J0_8_0 :J0_9_0 :J0_10_0 :J0_11_0" shape="-3.20,7.20 3.20,7.20 3.64,4.98 4.20,4.20 4.98,3.64 5.98,3.31 7.20,3.20 7.20,-3.20 4.98,-3.64 4.20,-4.20 3.64,-4.98 3.31,-5.98 3.20,-7.20 -3.20,-7.20 -3.64,-4.98 -4.20,-4.20 -4.98,-3.64 -5.98,-3.31 -7.20,-3.20 -7.20,3.20 -4.98,3.64 -4.20,4.20 -3.64,4.98 -3.31,5.98">
        <request index="0"  response="000000000000" foes="000100010000" cont="0"/>
        <request index="1"  response="111000000000" foes="111100110000" cont="0"/>
        <request index="2"  response="110111000000" foes="110111110000" cont="0"/>
        <request index="3"  response="000000000000" foes="100010000000" cont="0"/>
        <request index="4"  response="000000000111" foes="100110000111" cont="0"/>
        <request index="5"  response="011000000110" foes="111110000110" cont="0"/>
        <request index="6"  response="000000000000" foes="010000000100" cont="0"/>
        <request index="7"  response="000000111000" foes="110000111100" cont="0"/>
        <request index="8"  response="000000110011" foes="110000110111" cont="0"/>
        <request index="9"  response="000000000000" foes="000000100010" cont="0"/>
        <request index="10" response="000111000000" foes="000111100110" cont="0"/>
        <request index="11" response="000110111000" foes="000110111110" cont="0"/>
    </junction>
    <junction id="J1" type="dead_end" x="-1000.00" y="0.00" incLanes="road_hrz_4_0" intLanes="" shape="-1000.00,0.00 -1000.00,3.20 -1000.00,0.00"/>
    <junction id="J2" type="dead_end" x="0.00" y="1000.00" incLanes="road_ver_4_0" intLanes="" shape="0.00,1000.00 3.20,1000.00 0.00,1000.00"/>
    <junction id="J3" type="dead_end" x="1000.00" y="0.00" incLanes="road_hrz_2_0" intLanes="" shape="1000.00,0.00 1000.00,-3.20 1000.00,0.00"/>
    <junction id="J4" type="dead_end" x="0.00" y="-1000.00" incLanes="road_ver_2_0" intLanes="" shape="0.00,-1000.00 -3.20,-1000.00 0.00,-1000.00"/>

    <connection from="road_hrz_1" to="road_ver_2" fromLane="0" toLane="0" via=":J0_9_0" dir="r" state="M"/>
    <connection from="road_hrz_1" to="road_hrz_2" fromLane="0" toLane="0" via=":J0_10_0" dir="s" state="="/>
    <connection from="road_hrz_1" to="road_ver_4" fromLane="0" toLane="0" via=":J0_11_0" dir="l" state="="/>
    <connection from="road_hrz_3" to="road_ver_4" fromLane="0" toLane="0" via=":J0_3_0" dir="r" state="M"/>
    <connection from="road_hrz_3" to="road_hrz_4" fromLane="0" toLane="0" via=":J0_4_0" dir="s" state="="/>
    <connection from="road_hrz_3" to="road_ver_2" fromLane="0" toLane="0" via=":J0_5_0" dir="l" state="="/>
    <connection from="road_ver_1" to="road_hrz_4" fromLane="0" toLane="0" via=":J0_0_0" dir="r" state="M"/>
    <connection from="road_ver_1" to="road_ver_2" fromLane="0" toLane="0" via=":J0_1_0" dir="s" state="="/>
    <connection from="road_ver_1" to="road_hrz_2" fromLane="0" toLane="0" via=":J0_2_0" dir="l" state="="/>
    <connection from="road_ver_3" to="road_hrz_2" fromLane="0" toLane="0" via=":J0_6_0" dir="r" state="M"/>
    <connection from="road_ver_3" to="road_ver_4" fromLane="0" toLane="0" via=":J0_7_0" dir="s" state="="/>
    <connection from="road_ver_3" to="road_hrz_4" fromLane="0" toLane="0" via=":J0_8_0" dir="l" state="="/>

    <connection from=":J0_0" to="road_hrz_4" fromLane="0" toLane="0" dir="r" state="M"/>
    <connection from=":J0_1" to="road_ver_2" fromLane="0" toLane="0" dir="s" state="M"/>
    <connection from=":J0_2" to="road_hrz_2" fromLane="0" toLane="0" dir="l" state="M"/>
    <connection from=":J0_3" to="road_ver_4" fromLane="0" toLane="0" dir="r" state="M"/>
    <connection from=":J0_4" to="road_hrz_4" fromLane="0" toLane="0" dir="s" state="M"/>
    <connection from=":J0_5" to="road_ver_2" fromLane="0" toLane="0" dir="l" state="M"/>
    <connection from=":J0_6" to="road_hrz_2" fromLane="0" toLane="0" dir="r" state="M"/>
    <connection from=":J0_7" to="road_ver_4" fromLane="0" toLane="0" dir="s" state="M"/>
    <connection from=":J0_8" to="road_hrz_4" fromLane="0" toLane="0" dir="l" state="M"/>
    <connection from=":J0_9" to="road_ver_2" fromLane="0" toLane="0" dir="r" state="M"/>
    <connection from=":J0_10" to="road_hrz_2" fromLane="0" toLane="0" dir="s" state="M"/>
    <connection from=":J0_11" to="road_ver_4" fromLane="0" toLane="0" dir="l" state="M"/>

</net>
