<?xml version="1.0" encoding="UTF-8"?>
<!-- This is a basic configuration file for SUMO. -->

<routes>
    <route edges="road_hrz_1 road_hrz_2" color="yellow" id="route_0"/>
    <route edges="road_hrz_1 road_ver_2" color="yellow" id="route_1"/>
    <route edges="road_hrz_3 road_hrz_4" color="yellow" id="route_2"/>
    <route edges="road_hrz_3 road_ver_4" color="yellow" id="route_3"/>
    <route edges="road_ver_1 road_ver_2" color="yellow" id="route_4"/>
    <route edges="road_ver_1 road_hrz_4" color="yellow" id="route_5"/>
    <route edges="road_ver_3 road_ver_4" color="yellow" id="route_6"/>
    <route edges="road_ver_3 road_hrz_2" color="yellow" id="route_7"/>


    <vType id="myType" vclass="taxi" accel="5" decle="5" length="6"/>   #以下内容为车流新增部分

    <flow id="f1" begin="0" end="10000"  type="myType" vehsPerHour="200"
          departLane='random' route="route_0" maxSpeed="50"/>
    
    <flow id="f3" begin="7" end="10000"  type="myType" vehsPerHour="200"
          departLane='random' route="route_2" maxSpeed="50"/>
    
    <flow id="f5" begin="2" end="10000"  type="myType" vehsPerHour="200"
          departLane='random' route="route_4" maxSpeed="50"/>
    
    <flow id="f7" begin="5" end="10000"  type="myType" vehsPerHour="200"
          departLane='random' route="route_6" maxSpeed="50"/>
    

</routes>
